$ Spice netlist generated by v2lvs
$ v2021.1_33.19    Mon Mar 1 16:09:52 PST 2021
.INCLUDE "core.spi" 
.INCLUDE "umc18_io_lvs.spi" 
*.BUSDELIMITER [ 

.SUBCKT Siso_DW01_add_6 A[11] A[10] A[9] A[8] A[7] A[6] A[5] A[4] A[3] A[2] 
+ A[1] A[0] B[11] B[10] B[9] B[8] B[7] B[6] B[5] B[4] B[3] B[2] B[1] B[0] CI 
+ SUM[11] SUM[10] SUM[9] SUM[8] SUM[7] SUM[6] SUM[5] SUM[4] SUM[3] SUM[2] 
+ SUM[1] SUM[0] CO FE_OFN183_forward_sum_0__5__0 
+ FE_OFN226_backward_metrics_6__3__0 
XU1_1 FA1S $PINS S=SUM[1] CO=carry[2] A=A[1] B=B[1] CI=n1 
XU1_4 FA1S $PINS S=SUM[4] CO=carry[5] A=A[4] B=B[4] CI=carry[4] 
XU1_8 FA1S $PINS S=SUM[8] CO=carry[9] A=A[8] B=B[8] CI=carry[8] 
XU1_9 FA1S $PINS S=SUM[9] CO=carry[10] A=A[9] B=B[9] CI=carry[9] 
XU1_10 FA1S $PINS S=SUM[10] CO=carry[11] A=A[10] B=B[10] CI=carry[10] 
XU1_6 FA1S $PINS S=SUM[6] CO=carry[7] A=A[6] B=B[6] CI=carry[6] 
XU1_7 FA1S $PINS S=SUM[7] CO=carry[8] A=A[7] B=B[7] CI=carry[7] 
XU1_2 FA1S $PINS S=SUM[2] CO=carry[3] A=A[2] B=B[2] CI=carry[2] 
XU1_5 FA1S $PINS S=SUM[5] CO=carry[6] A=A[5] B=B[5] CI=carry[5] 
XU1_3 FA1S $PINS S=SUM[3] CO=carry[4] A=A[3] B=B[3] CI=carry[3] 
XU1_11 XOR3 $PINS O=SUM[11] I1=A[11] I2=B[11] I3=carry[11] 
XU1 AN2 $PINS O=n1 I1=B[0] I2=FE_OFN226_backward_metrics_6__3__0 
XU2 XOR2HS $PINS O=SUM[0] I1=FE_OFN183_forward_sum_0__5__0 I2=A[0] 
.ENDS

.SUBCKT Siso_DW01_add_7 A[11] A[10] A[9] A[8] A[7] A[6] A[5] A[4] A[3] A[2] 
+ A[1] A[0] B[11] B[10] B[9] B[8] B[7] B[6] B[5] B[4] B[3] B[2] B[1] B[0] CI 
+ SUM[11] SUM[10] SUM[9] SUM[8] SUM[7] SUM[6] SUM[5] SUM[4] SUM[3] SUM[2] 
+ SUM[1] SUM[0] CO FE_OFN176_forward_sum_0__1__0 
+ FE_OFN223_backward_metrics_6__1__0 
XU1_1 FA1S $PINS S=SUM[1] CO=carry[2] A=A[1] B=B[1] CI=n1 
XU1_9 FA1 $PINS S=SUM[9] CO=carry[10] A=A[9] B=B[9] CI=carry[9] 
XU1_10 FA1S $PINS S=SUM[10] CO=carry[11] A=A[10] B=B[10] CI=carry[10] 
XU1_7 FA1S $PINS S=SUM[7] CO=carry[8] A=A[7] B=B[7] CI=carry[7] 
XU1_8 FA1S $PINS S=SUM[8] CO=carry[9] A=A[8] B=B[8] CI=carry[8] 
XU1_4 FA1 $PINS S=SUM[4] CO=carry[5] A=A[4] B=B[4] CI=carry[4] 
XU1_5 FA1 $PINS S=SUM[5] CO=carry[6] A=A[5] B=B[5] CI=carry[5] 
XU1_3 FA1S $PINS S=SUM[3] CO=carry[4] A=A[3] B=B[3] CI=carry[3] 
XU1_6 FA1 $PINS S=SUM[6] CO=carry[7] A=A[6] B=B[6] CI=carry[6] 
XU1_2 FA1S $PINS S=SUM[2] CO=carry[3] A=A[2] B=B[2] CI=carry[2] 
XU1_11 XOR3 $PINS O=SUM[11] I1=A[11] I2=B[11] I3=carry[11] 
XU1 AN2 $PINS O=n1 I1=FE_OFN176_forward_sum_0__1__0 
+ I2=FE_OFN223_backward_metrics_6__1__0 
XU2 XOR2HS $PINS O=SUM[0] I1=B[0] I2=A[0] 
.ENDS

.SUBCKT Siso_DW01_add_8 A[11] A[10] A[9] A[8] A[7] A[6] A[5] A[4] A[3] A[2] 
+ A[1] A[0] B[11] B[10] B[9] B[8] B[7] B[6] B[5] B[4] B[3] B[2] B[1] B[0] CI 
+ SUM[11] SUM[10] SUM[9] SUM[8] SUM[7] SUM[6] SUM[5] SUM[4] SUM[3] SUM[2] 
+ SUM[1] SUM[0] CO FE_OFN227_backward_metrics_6__3__0 
XU1_1 FA1S $PINS S=SUM[1] CO=carry[2] A=A[1] B=B[1] CI=n1 
XU1_4 FA1S $PINS S=SUM[4] CO=carry[5] A=A[4] B=B[4] CI=carry[4] 
XU1_8 FA1S $PINS S=SUM[8] CO=carry[9] A=A[8] B=B[8] CI=carry[8] 
XU1_9 FA1S $PINS S=SUM[9] CO=carry[10] A=A[9] B=B[9] CI=carry[9] 
XU1_10 FA1S $PINS S=SUM[10] CO=carry[11] A=A[10] B=B[10] CI=carry[10] 
XU1_6 FA1S $PINS S=SUM[6] CO=carry[7] A=A[6] B=B[6] CI=carry[6] 
XU1_7 FA1S $PINS S=SUM[7] CO=carry[8] A=A[7] B=B[7] CI=carry[7] 
XU1_2 FA1S $PINS S=SUM[2] CO=carry[3] A=A[2] B=B[2] CI=carry[2] 
XU1_5 FA1S $PINS S=SUM[5] CO=carry[6] A=A[5] B=B[5] CI=carry[5] 
XU1_3 FA1S $PINS S=SUM[3] CO=carry[4] A=A[3] B=B[3] CI=carry[3] 
XU1_11 XOR3 $PINS O=SUM[11] I1=A[11] I2=B[11] I3=carry[11] 
XU1 AN2 $PINS O=n1 I1=B[0] I2=A[0] 
XU2 XOR2HS $PINS O=SUM[0] I1=B[0] I2=FE_OFN227_backward_metrics_6__3__0 
.ENDS

.SUBCKT Siso_DW01_add_9 A[11] A[10] A[9] A[8] A[7] A[6] A[5] A[4] A[3] A[2] 
+ A[1] A[0] B[11] B[10] B[9] B[8] B[7] B[6] B[5] B[4] B[3] B[2] B[1] B[0] CI 
+ SUM[11] SUM[10] SUM[9] SUM[8] SUM[7] SUM[6] SUM[5] SUM[4] SUM[3] SUM[2] 
+ SUM[1] SUM[0] CO FE_OFN224_backward_metrics_6__1__0 
+ FE_OFN245_forward_sum_0__2__0 
XU1_1 FA1S $PINS S=SUM[1] CO=carry[2] A=A[1] B=B[1] CI=n1 
XU1_9 FA1 $PINS S=SUM[9] CO=carry[10] A=A[9] B=B[9] CI=carry[9] 
XU1_10 FA1S $PINS S=SUM[10] CO=carry[11] A=A[10] B=B[10] CI=carry[10] 
XU1_7 FA1S $PINS S=SUM[7] CO=carry[8] A=A[7] B=B[7] CI=carry[7] 
XU1_8 FA1S $PINS S=SUM[8] CO=carry[9] A=A[8] B=B[8] CI=carry[8] 
XU1_4 FA1 $PINS S=SUM[4] CO=carry[5] A=A[4] B=B[4] CI=carry[4] 
XU1_5 FA1 $PINS S=SUM[5] CO=carry[6] A=A[5] B=B[5] CI=carry[5] 
XU1_3 FA1S $PINS S=SUM[3] CO=carry[4] A=A[3] B=B[3] CI=carry[3] 
XU1_6 FA1S $PINS S=SUM[6] CO=carry[7] A=A[6] B=B[6] CI=carry[6] 
XU1_2 FA1 $PINS S=SUM[2] CO=carry[3] A=A[2] B=B[2] CI=carry[2] 
XU1_11 XOR3 $PINS O=SUM[11] I1=A[11] I2=B[11] I3=carry[11] 
XU1 AN2 $PINS O=n1 I1=FE_OFN245_forward_sum_0__2__0 
+ I2=FE_OFN224_backward_metrics_6__1__0 
XU2 XOR2HS $PINS O=SUM[0] I1=B[0] I2=A[0] 
.ENDS

.SUBCKT Siso_DW01_add_10 A[11] A[10] A[9] A[8] A[7] A[6] A[5] A[4] A[3] A[2] 
+ A[1] A[0] B[11] B[10] B[9] B[8] B[7] B[6] B[5] B[4] B[3] B[2] B[1] B[0] CI 
+ SUM[11] SUM[10] SUM[9] SUM[8] SUM[7] SUM[6] SUM[5] SUM[4] SUM[3] SUM[2] 
+ SUM[1] SUM[0] CO FE_OFN225_backward_metrics_6__2__0 
+ FE_OFN247_backward_metrics_6__2__0 
XU1_4 FA1S $PINS S=SUM[4] CO=carry[5] A=A[4] B=B[4] CI=carry[4] 
XU1_8 FA1 $PINS S=SUM[8] CO=carry[9] A=A[8] B=B[8] CI=carry[8] 
XU1_9 FA1S $PINS S=SUM[9] CO=carry[10] A=A[9] B=B[9] CI=carry[9] 
XU1_10 FA1S $PINS S=SUM[10] CO=carry[11] A=A[10] B=B[10] CI=carry[10] 
XU1_1 FA1S $PINS S=SUM[1] CO=carry[2] A=A[1] B=B[1] CI=n1 
XU1_6 FA1 $PINS S=SUM[6] CO=carry[7] A=A[6] B=B[6] CI=carry[6] 
XU1_7 FA1S $PINS S=SUM[7] CO=carry[8] A=A[7] B=B[7] CI=carry[7] 
XU1_2 FA1S $PINS S=SUM[2] CO=carry[3] A=A[2] B=B[2] CI=carry[2] 
XU1_5 FA1S $PINS S=SUM[5] CO=carry[6] A=A[5] B=B[5] CI=carry[5] 
XU1_3 FA1S $PINS S=SUM[3] CO=carry[4] A=A[3] B=B[3] CI=carry[3] 
XU1_11 XOR3 $PINS O=SUM[11] I1=A[11] I2=B[11] I3=carry[11] 
XU1 AN2 $PINS O=n1 I1=B[0] I2=FE_OFN225_backward_metrics_6__2__0 
XU2 XOR2HS $PINS O=SUM[0] I1=B[0] I2=FE_OFN247_backward_metrics_6__2__0 
.ENDS

.SUBCKT Siso_DW01_add_11 A[11] A[10] A[9] A[8] A[7] A[6] A[5] A[4] A[3] A[2] 
+ A[1] A[0] B[11] B[10] B[9] B[8] B[7] B[6] B[5] B[4] B[3] B[2] B[1] B[0] CI 
+ SUM[11] SUM[10] SUM[9] SUM[8] SUM[7] SUM[6] SUM[5] SUM[4] SUM[3] SUM[2] 
+ SUM[1] SUM[0] CO FE_OFN177_forward_sum_0__1__0 
+ FE_OFN217_backward_metrics_6__0__0 
XU1_1 FA1S $PINS S=SUM[1] CO=carry[2] A=A[1] B=B[1] CI=n1 
XU1_9 FA1 $PINS S=SUM[9] CO=carry[10] A=A[9] B=B[9] CI=carry[9] 
XU1_10 FA1S $PINS S=SUM[10] CO=carry[11] A=A[10] B=B[10] CI=carry[10] 
XU1_7 FA1S $PINS S=SUM[7] CO=carry[8] A=A[7] B=B[7] CI=carry[7] 
XU1_8 FA1 $PINS S=SUM[8] CO=carry[9] A=A[8] B=B[8] CI=carry[8] 
XU1_4 FA1 $PINS S=SUM[4] CO=carry[5] A=A[4] B=B[4] CI=carry[4] 
XU1_5 FA1S $PINS S=SUM[5] CO=carry[6] A=A[5] B=B[5] CI=carry[5] 
XU1_3 FA1S $PINS S=SUM[3] CO=carry[4] A=A[3] B=B[3] CI=carry[3] 
XU1_6 FA1 $PINS S=SUM[6] CO=carry[7] A=A[6] B=B[6] CI=carry[6] 
XU1_2 FA1S $PINS S=SUM[2] CO=carry[3] A=A[2] B=B[2] CI=carry[2] 
XU1_11 XOR3 $PINS O=SUM[11] I1=A[11] I2=B[11] I3=carry[11] 
XU1 AN2 $PINS O=n1 I1=FE_OFN177_forward_sum_0__1__0 I2=A[0] 
XU2 XOR2HS $PINS O=SUM[0] I1=B[0] I2=FE_OFN217_backward_metrics_6__0__0 
.ENDS

.SUBCKT Siso_DW01_add_28 A[11] A[10] A[9] A[8] A[7] A[6] A[5] A[4] A[3] A[2] 
+ A[1] A[0] B[11] B[10] B[9] B[8] B[7] B[6] B[5] B[4] B[3] B[2] B[1] B[0] CI 
+ SUM[11] SUM[10] SUM[9] SUM[8] SUM[7] SUM[6] SUM[5] SUM[4] SUM[3] SUM[2] 
+ SUM[1] SUM[0] CO FE_OFN236_backward_metrics_5__3__0 
XU1_1 FA1 $PINS S=SUM[1] CO=carry[2] A=A[1] B=B[1] CI=n1 
XU1_11 XOR3 $PINS O=SUM[11] I1=A[11] I2=B[11] I3=carry[11] 
XU1_4 FA1S $PINS S=SUM[4] CO=carry[5] A=A[4] B=B[4] CI=carry[4] 
XU1_8 FA1S $PINS S=SUM[8] CO=carry[9] A=A[8] B=B[8] CI=carry[8] 
XU1_9 FA1S $PINS S=SUM[9] CO=carry[10] A=A[9] B=B[9] CI=carry[9] 
XU1_10 FA1S $PINS S=SUM[10] CO=carry[11] A=A[10] B=B[10] CI=carry[10] 
XU1_6 FA1S $PINS S=SUM[6] CO=carry[7] A=A[6] B=B[6] CI=carry[6] 
XU1_7 FA1S $PINS S=SUM[7] CO=carry[8] A=A[7] B=B[7] CI=carry[7] 
XU1_2 FA1S $PINS S=SUM[2] CO=carry[3] A=A[2] B=B[2] CI=carry[2] 
XU1_5 FA1S $PINS S=SUM[5] CO=carry[6] A=A[5] B=B[5] CI=carry[5] 
XU1_3 FA1S $PINS S=SUM[3] CO=carry[4] A=A[3] B=B[3] CI=carry[3] 
XU1 AN2 $PINS O=n1 I1=B[0] I2=A[0] 
XU2 XOR2HS $PINS O=SUM[0] I1=B[0] I2=FE_OFN236_backward_metrics_5__3__0 
.ENDS

.SUBCKT Siso_DW01_add_29 A[11] A[10] A[9] A[8] A[7] A[6] A[5] A[4] A[3] A[2] 
+ A[1] A[0] B[11] B[10] B[9] B[8] B[7] B[6] B[5] B[4] B[3] B[2] B[1] B[0] CI 
+ SUM[11] SUM[10] SUM[9] SUM[8] SUM[7] SUM[6] SUM[5] SUM[4] SUM[3] SUM[2] 
+ SUM[1] SUM[0] CO FE_OFN155_branch_metrics_1__2__0 
XU1_1 FA1S $PINS S=SUM[1] CO=carry[2] A=A[1] B=B[1] CI=n1 
XU1_11 XOR3 $PINS O=SUM[11] I1=A[11] I2=B[11] I3=carry[11] 
XU1_9 FA1 $PINS S=SUM[9] CO=carry[10] A=A[9] B=B[9] CI=carry[9] 
XU1_10 FA1S $PINS S=SUM[10] CO=carry[11] A=A[10] B=B[10] CI=carry[10] 
XU1_7 FA1S $PINS S=SUM[7] CO=carry[8] A=A[7] B=B[7] CI=carry[7] 
XU1_8 FA1S $PINS S=SUM[8] CO=carry[9] A=A[8] B=B[8] CI=carry[8] 
XU1_4 FA1 $PINS S=SUM[4] CO=carry[5] A=A[4] B=B[4] CI=carry[4] 
XU1_5 FA1 $PINS S=SUM[5] CO=carry[6] A=A[5] B=B[5] CI=carry[5] 
XU1_3 FA1S $PINS S=SUM[3] CO=carry[4] A=A[3] B=B[3] CI=carry[3] 
XU1_6 FA1 $PINS S=SUM[6] CO=carry[7] A=A[6] B=B[6] CI=carry[6] 
XU1_2 FA1 $PINS S=SUM[2] CO=carry[3] A=A[2] B=B[2] CI=carry[2] 
XU1 AN2 $PINS O=n1 I1=FE_OFN155_branch_metrics_1__2__0 I2=A[0] 
XU2 XOR2HS $PINS O=SUM[0] I1=FE_OFN155_branch_metrics_1__2__0 I2=A[0] 
.ENDS

.SUBCKT Siso_DW01_add_30 A[11] A[10] A[9] A[8] A[7] A[6] A[5] A[4] A[3] A[2] 
+ A[1] A[0] B[11] B[10] B[9] B[8] B[7] B[6] B[5] B[4] B[3] B[2] B[1] B[0] CI 
+ SUM[11] SUM[10] SUM[9] SUM[8] SUM[7] SUM[6] SUM[5] SUM[4] SUM[3] SUM[2] 
+ SUM[1] SUM[0] CO 
XU1_1 FA1 $PINS S=SUM[1] CO=carry[2] A=A[1] B=B[1] CI=n1 
XU1_11 XOR3 $PINS O=SUM[11] I1=A[11] I2=B[11] I3=carry[11] 
XU1_4 FA1S $PINS S=SUM[4] CO=carry[5] A=A[4] B=B[4] CI=carry[4] 
XU1_8 FA1S $PINS S=SUM[8] CO=carry[9] A=A[8] B=B[8] CI=carry[8] 
XU1_9 FA1 $PINS S=SUM[9] CO=carry[10] A=A[9] B=B[9] CI=carry[9] 
XU1_10 FA1S $PINS S=SUM[10] CO=carry[11] A=A[10] B=B[10] CI=carry[10] 
XU1_6 FA1S $PINS S=SUM[6] CO=carry[7] A=A[6] B=B[6] CI=carry[6] 
XU1_7 FA1S $PINS S=SUM[7] CO=carry[8] A=A[7] B=B[7] CI=carry[7] 
XU1_2 FA1S $PINS S=SUM[2] CO=carry[3] A=A[2] B=B[2] CI=carry[2] 
XU1_5 FA1S $PINS S=SUM[5] CO=carry[6] A=A[5] B=B[5] CI=carry[5] 
XU1_3 FA1S $PINS S=SUM[3] CO=carry[4] A=A[3] B=B[3] CI=carry[3] 
XU1 AN2 $PINS O=n1 I1=B[0] I2=A[0] 
XU2 XOR2HS $PINS O=SUM[0] I1=B[0] I2=A[0] 
.ENDS

.SUBCKT Siso_DW01_add_31 A[11] A[10] A[9] A[8] A[7] A[6] A[5] A[4] A[3] A[2] 
+ A[1] A[0] B[11] B[10] B[9] B[8] B[7] B[6] B[5] B[4] B[3] B[2] B[1] B[0] CI 
+ SUM[11] SUM[10] SUM[9] SUM[8] SUM[7] SUM[6] SUM[5] SUM[4] SUM[3] SUM[2] 
+ SUM[1] SUM[0] CO 
XU1_1 FA1 $PINS S=SUM[1] CO=carry[2] A=A[1] B=B[1] CI=n1 
XU1_11 XOR3 $PINS O=SUM[11] I1=A[11] I2=B[11] I3=carry[11] 
XU1_9 FA1 $PINS S=SUM[9] CO=carry[10] A=A[9] B=B[9] CI=carry[9] 
XU1_10 FA1S $PINS S=SUM[10] CO=carry[11] A=A[10] B=B[10] CI=carry[10] 
XU1_7 FA1S $PINS S=SUM[7] CO=carry[8] A=A[7] B=B[7] CI=carry[7] 
XU1_8 FA1S $PINS S=SUM[8] CO=carry[9] A=A[8] B=B[8] CI=carry[8] 
XU1_4 FA1 $PINS S=SUM[4] CO=carry[5] A=A[4] B=B[4] CI=carry[4] 
XU1_5 FA1 $PINS S=SUM[5] CO=carry[6] A=A[5] B=B[5] CI=carry[5] 
XU1_3 FA1S $PINS S=SUM[3] CO=carry[4] A=A[3] B=B[3] CI=carry[3] 
XU1_6 FA1S $PINS S=SUM[6] CO=carry[7] A=A[6] B=B[6] CI=carry[6] 
XU1_2 FA1S $PINS S=SUM[2] CO=carry[3] A=A[2] B=B[2] CI=carry[2] 
XU1 AN2 $PINS O=n1 I1=B[0] I2=A[0] 
XU2 XOR2HS $PINS O=SUM[0] I1=B[0] I2=A[0] 
.ENDS

.SUBCKT Siso_DW01_add_32 A[11] A[10] A[9] A[8] A[7] A[6] A[5] A[4] A[3] A[2] 
+ A[1] A[0] B[11] B[10] B[9] B[8] B[7] B[6] B[5] B[4] B[3] B[2] B[1] B[0] CI 
+ SUM[11] SUM[10] SUM[9] SUM[8] SUM[7] SUM[6] SUM[5] SUM[4] SUM[3] SUM[2] 
+ SUM[1] SUM[0] CO 
XU1_1 FA1S $PINS S=SUM[1] CO=carry[2] A=A[1] B=B[1] CI=n1 
XU1_11 XOR3 $PINS O=SUM[11] I1=A[11] I2=B[11] I3=carry[11] 
XU1_4 FA1S $PINS S=SUM[4] CO=carry[5] A=A[4] B=B[4] CI=carry[4] 
XU1_8 FA1 $PINS S=SUM[8] CO=carry[9] A=A[8] B=B[8] CI=carry[8] 
XU1_9 FA1 $PINS S=SUM[9] CO=carry[10] A=A[9] B=B[9] CI=carry[9] 
XU1_10 FA1S $PINS S=SUM[10] CO=carry[11] A=A[10] B=B[10] CI=carry[10] 
XU1_6 FA1S $PINS S=SUM[6] CO=carry[7] A=A[6] B=B[6] CI=carry[6] 
XU1_7 FA1S $PINS S=SUM[7] CO=carry[8] A=A[7] B=B[7] CI=carry[7] 
XU1_2 FA1S $PINS S=SUM[2] CO=carry[3] A=A[2] B=B[2] CI=carry[2] 
XU1_5 FA1S $PINS S=SUM[5] CO=carry[6] A=A[5] B=B[5] CI=carry[5] 
XU1_3 FA1S $PINS S=SUM[3] CO=carry[4] A=A[3] B=B[3] CI=carry[3] 
XU1 AN2 $PINS O=n1 I1=B[0] I2=A[0] 
XU2 XOR2HS $PINS O=SUM[0] I1=B[0] I2=A[0] 
.ENDS

.SUBCKT Siso_DW01_add_33 A[11] A[10] A[9] A[8] A[7] A[6] A[5] A[4] A[3] A[2] 
+ A[1] A[0] B[11] B[10] B[9] B[8] B[7] B[6] B[5] B[4] B[3] B[2] B[1] B[0] CI 
+ SUM[11] SUM[10] SUM[9] SUM[8] SUM[7] SUM[6] SUM[5] SUM[4] SUM[3] SUM[2] 
+ SUM[1] SUM[0] CO 
XU1_1 FA1 $PINS S=SUM[1] CO=carry[2] A=A[1] B=B[1] CI=n1 
XU1_11 XOR3 $PINS O=SUM[11] I1=A[11] I2=B[11] I3=carry[11] 
XU1_9 FA1 $PINS S=SUM[9] CO=carry[10] A=A[9] B=B[9] CI=carry[9] 
XU1_10 FA1S $PINS S=SUM[10] CO=carry[11] A=A[10] B=B[10] CI=carry[10] 
XU1_7 FA1 $PINS S=SUM[7] CO=carry[8] A=A[7] B=B[7] CI=carry[7] 
XU1_8 FA1 $PINS S=SUM[8] CO=carry[9] A=A[8] B=B[8] CI=carry[8] 
XU1_4 FA1S $PINS S=SUM[4] CO=carry[5] A=A[4] B=B[4] CI=carry[4] 
XU1_5 FA1S $PINS S=SUM[5] CO=carry[6] A=A[5] B=B[5] CI=carry[5] 
XU1_3 FA1S $PINS S=SUM[3] CO=carry[4] A=A[3] B=B[3] CI=carry[3] 
XU1_6 FA1S $PINS S=SUM[6] CO=carry[7] A=A[6] B=B[6] CI=carry[6] 
XU1_2 FA1S $PINS S=SUM[2] CO=carry[3] A=A[2] B=B[2] CI=carry[2] 
XU1 AN2 $PINS O=n1 I1=B[0] I2=A[0] 
XU2 XOR2HS $PINS O=SUM[0] I1=B[0] I2=A[0] 
.ENDS

.SUBCKT Siso_DW01_add_34 A[11] A[10] A[9] A[8] A[7] A[6] A[5] A[4] A[3] A[2] 
+ A[1] A[0] B[11] B[10] B[9] B[8] B[7] B[6] B[5] B[4] B[3] B[2] B[1] B[0] CI 
+ SUM[11] SUM[10] SUM[9] SUM[8] SUM[7] SUM[6] SUM[5] SUM[4] SUM[3] SUM[2] 
+ SUM[1] SUM[0] CO FE_OFN211_backward_metrics_5__2__0 
XU1_1 FA1 $PINS S=SUM[1] CO=carry[2] A=A[1] B=B[1] CI=n1 
XU1_11 XOR3 $PINS O=SUM[11] I1=A[11] I2=B[11] I3=carry[11] 
XU1_4 FA1S $PINS S=SUM[4] CO=carry[5] A=A[4] B=B[4] CI=carry[4] 
XU1_6 FA1S $PINS S=SUM[6] CO=carry[7] A=A[6] B=B[6] CI=carry[6] 
XU1_10 FA1S $PINS S=SUM[10] CO=carry[11] A=A[10] B=B[10] CI=carry[10] 
XU1_8 FA1 $PINS S=SUM[8] CO=carry[9] A=A[8] B=B[8] CI=carry[8] 
XU1_9 FA1 $PINS S=SUM[9] CO=carry[10] A=A[9] B=B[9] CI=carry[9] 
XU1_2 FA1S $PINS S=SUM[2] CO=carry[3] A=A[2] B=B[2] CI=carry[2] 
XU1_7 FA1 $PINS S=SUM[7] CO=carry[8] A=A[7] B=B[7] CI=carry[7] 
XU1_5 FA1S $PINS S=SUM[5] CO=carry[6] A=A[5] B=B[5] CI=carry[5] 
XU1_3 FA1S $PINS S=SUM[3] CO=carry[4] A=A[3] B=B[3] CI=carry[3] 
XU1 AN2 $PINS O=n1 I1=B[0] I2=FE_OFN211_backward_metrics_5__2__0 
XU2 XOR2HS $PINS O=SUM[0] I1=B[0] I2=A[0] 
.ENDS

.SUBCKT Siso_DW01_add_35 A[11] A[10] A[9] A[8] A[7] A[6] A[5] A[4] A[3] A[2] 
+ A[1] A[0] B[11] B[10] B[9] B[8] B[7] B[6] B[5] B[4] B[3] B[2] B[1] B[0] CI 
+ SUM[11] SUM[10] SUM[9] SUM[8] SUM[7] SUM[6] SUM[5] SUM[4] SUM[3] SUM[2] 
+ SUM[1] SUM[0] CO 
XU1_1 FA1 $PINS S=SUM[1] CO=carry[2] A=A[1] B=B[1] CI=n1 
XU1_11 XOR3 $PINS O=SUM[11] I1=A[11] I2=B[11] I3=carry[11] 
XU1_8 FA1S $PINS S=SUM[8] CO=carry[9] A=A[8] B=B[8] CI=carry[8] 
XU1_9 FA1 $PINS S=SUM[9] CO=carry[10] A=A[9] B=B[9] CI=carry[9] 
XU1_10 FA1S $PINS S=SUM[10] CO=carry[11] A=A[10] B=B[10] CI=carry[10] 
XU1_7 FA1 $PINS S=SUM[7] CO=carry[8] A=A[7] B=B[7] CI=carry[7] 
XU1_3 FA1S $PINS S=SUM[3] CO=carry[4] A=A[3] B=B[3] CI=carry[3] 
XU1_4 FA1 $PINS S=SUM[4] CO=carry[5] A=A[4] B=B[4] CI=carry[4] 
XU1_5 FA1S $PINS S=SUM[5] CO=carry[6] A=A[5] B=B[5] CI=carry[5] 
XU1_6 FA1 $PINS S=SUM[6] CO=carry[7] A=A[6] B=B[6] CI=carry[6] 
XU1_2 FA1S $PINS S=SUM[2] CO=carry[3] A=A[2] B=B[2] CI=carry[2] 
XU1 AN2 $PINS O=n1 I1=B[0] I2=A[0] 
XU2 XOR2HS $PINS O=SUM[0] I1=B[0] I2=A[0] 
.ENDS

.SUBCKT Siso_DW01_add_52 A[11] A[10] A[9] A[8] A[7] A[6] A[5] A[4] A[3] A[2] 
+ A[1] A[0] B[11] B[10] B[9] B[8] B[7] B[6] B[5] B[4] B[3] B[2] B[1] B[0] CI 
+ SUM[11] SUM[10] SUM[9] SUM[8] SUM[7] SUM[6] SUM[5] SUM[4] SUM[3] SUM[2] 
+ SUM[1] SUM[0] CO FE_OFN239_backward_metrics_4__3__0 
XU1_1 FA1S $PINS S=SUM[1] CO=carry[2] A=A[1] B=B[1] CI=n1 
XU1_4 FA1S $PINS S=SUM[4] CO=carry[5] A=A[4] B=B[4] CI=carry[4] 
XU1_8 FA1S $PINS S=SUM[8] CO=carry[9] A=A[8] B=B[8] CI=carry[8] 
XU1_9 FA1 $PINS S=SUM[9] CO=carry[10] A=A[9] B=B[9] CI=carry[9] 
XU1_10 FA1S $PINS S=SUM[10] CO=carry[11] A=A[10] B=B[10] CI=carry[10] 
XU1_6 FA1S $PINS S=SUM[6] CO=carry[7] A=A[6] B=B[6] CI=carry[6] 
XU1_7 FA1S $PINS S=SUM[7] CO=carry[8] A=A[7] B=B[7] CI=carry[7] 
XU1_2 FA1S $PINS S=SUM[2] CO=carry[3] A=A[2] B=B[2] CI=carry[2] 
XU1_5 FA1S $PINS S=SUM[5] CO=carry[6] A=A[5] B=B[5] CI=carry[5] 
XU1_3 FA1S $PINS S=SUM[3] CO=carry[4] A=A[3] B=B[3] CI=carry[3] 
XU1_11 XOR3 $PINS O=SUM[11] I1=A[11] I2=B[11] I3=carry[11] 
XU1 AN2 $PINS O=n1 I1=B[0] I2=A[0] 
XU2 XOR2HS $PINS O=SUM[0] I1=B[0] I2=FE_OFN239_backward_metrics_4__3__0 
.ENDS

.SUBCKT Siso_DW01_add_53 A[11] A[10] A[9] A[8] A[7] A[6] A[5] A[4] A[3] A[2] 
+ A[1] A[0] B[11] B[10] B[9] B[8] B[7] B[6] B[5] B[4] B[3] B[2] B[1] B[0] CI 
+ SUM[11] SUM[10] SUM[9] SUM[8] SUM[7] SUM[6] SUM[5] SUM[4] SUM[3] SUM[2] 
+ SUM[1] SUM[0] CO 
XU1_1 FA1S $PINS S=SUM[1] CO=carry[2] A=A[1] B=B[1] CI=n1 
XU1_9 FA1 $PINS S=SUM[9] CO=carry[10] A=A[9] B=B[9] CI=carry[9] 
XU1_10 FA1S $PINS S=SUM[10] CO=carry[11] A=A[10] B=B[10] CI=carry[10] 
XU1_7 FA1 $PINS S=SUM[7] CO=carry[8] A=A[7] B=B[7] CI=carry[7] 
XU1_8 FA1S $PINS S=SUM[8] CO=carry[9] A=A[8] B=B[8] CI=carry[8] 
XU1_4 FA1 $PINS S=SUM[4] CO=carry[5] A=A[4] B=B[4] CI=carry[4] 
XU1_5 FA1 $PINS S=SUM[5] CO=carry[6] A=A[5] B=B[5] CI=carry[5] 
XU1_3 FA1S $PINS S=SUM[3] CO=carry[4] A=A[3] B=B[3] CI=carry[3] 
XU1_6 FA1S $PINS S=SUM[6] CO=carry[7] A=A[6] B=B[6] CI=carry[6] 
XU1_2 FA1S $PINS S=SUM[2] CO=carry[3] A=A[2] B=B[2] CI=carry[2] 
XU1_11 XOR3 $PINS O=SUM[11] I1=A[11] I2=B[11] I3=carry[11] 
XU1 AN2 $PINS O=n1 I1=B[0] I2=A[0] 
XU2 XOR2HS $PINS O=SUM[0] I1=B[0] I2=A[0] 
.ENDS

.SUBCKT Siso_DW01_add_54 A[11] A[10] A[9] A[8] A[7] A[6] A[5] A[4] A[3] A[2] 
+ A[1] A[0] B[11] B[10] B[9] B[8] B[7] B[6] B[5] B[4] B[3] B[2] B[1] B[0] CI 
+ SUM[11] SUM[10] SUM[9] SUM[8] SUM[7] SUM[6] SUM[5] SUM[4] SUM[3] SUM[2] 
+ SUM[1] SUM[0] CO 
XU1_1 FA1S $PINS S=SUM[1] CO=carry[2] A=A[1] B=B[1] CI=n1 
XU1_4 FA1S $PINS S=SUM[4] CO=carry[5] A=A[4] B=B[4] CI=carry[4] 
XU1_8 FA1S $PINS S=SUM[8] CO=carry[9] A=A[8] B=B[8] CI=carry[8] 
XU1_9 FA1 $PINS S=SUM[9] CO=carry[10] A=A[9] B=B[9] CI=carry[9] 
XU1_10 FA1S $PINS S=SUM[10] CO=carry[11] A=A[10] B=B[10] CI=carry[10] 
XU1_6 FA1S $PINS S=SUM[6] CO=carry[7] A=A[6] B=B[6] CI=carry[6] 
XU1_7 FA1S $PINS S=SUM[7] CO=carry[8] A=A[7] B=B[7] CI=carry[7] 
XU1_2 FA1S $PINS S=SUM[2] CO=carry[3] A=A[2] B=B[2] CI=carry[2] 
XU1_5 FA1S $PINS S=SUM[5] CO=carry[6] A=A[5] B=B[5] CI=carry[5] 
XU1_3 FA1S $PINS S=SUM[3] CO=carry[4] A=A[3] B=B[3] CI=carry[3] 
XU1_11 XOR3 $PINS O=SUM[11] I1=A[11] I2=B[11] I3=carry[11] 
XU1 AN2 $PINS O=n1 I1=B[0] I2=A[0] 
XU2 XOR2HS $PINS O=SUM[0] I1=B[0] I2=A[0] 
.ENDS

.SUBCKT Siso_DW01_add_55 A[11] A[10] A[9] A[8] A[7] A[6] A[5] A[4] A[3] A[2] 
+ A[1] A[0] B[11] B[10] B[9] B[8] B[7] B[6] B[5] B[4] B[3] B[2] B[1] B[0] CI 
+ SUM[11] SUM[10] SUM[9] SUM[8] SUM[7] SUM[6] SUM[5] SUM[4] SUM[3] SUM[2] 
+ SUM[1] SUM[0] CO 
XU1_1 FA1S $PINS S=SUM[1] CO=carry[2] A=A[1] B=B[1] CI=n1 
XU1_9 FA1 $PINS S=SUM[9] CO=carry[10] A=A[9] B=B[9] CI=carry[9] 
XU1_10 FA1S $PINS S=SUM[10] CO=carry[11] A=A[10] B=B[10] CI=carry[10] 
XU1_7 FA1S $PINS S=SUM[7] CO=carry[8] A=A[7] B=B[7] CI=carry[7] 
XU1_8 FA1S $PINS S=SUM[8] CO=carry[9] A=A[8] B=B[8] CI=carry[8] 
XU1_4 FA1 $PINS S=SUM[4] CO=carry[5] A=A[4] B=B[4] CI=carry[4] 
XU1_5 FA1S $PINS S=SUM[5] CO=carry[6] A=A[5] B=B[5] CI=carry[5] 
XU1_3 FA1S $PINS S=SUM[3] CO=carry[4] A=A[3] B=B[3] CI=carry[3] 
XU1_6 FA1 $PINS S=SUM[6] CO=carry[7] A=A[6] B=B[6] CI=carry[6] 
XU1_2 FA1 $PINS S=SUM[2] CO=carry[3] A=A[2] B=B[2] CI=carry[2] 
XU1_11 XOR3 $PINS O=SUM[11] I1=A[11] I2=B[11] I3=carry[11] 
XU1 AN2 $PINS O=n1 I1=B[0] I2=A[0] 
XU2 XOR2HS $PINS O=SUM[0] I1=B[0] I2=A[0] 
.ENDS

.SUBCKT Siso_DW01_add_56 A[11] A[10] A[9] A[8] A[7] A[6] A[5] A[4] A[3] A[2] 
+ A[1] A[0] B[11] B[10] B[9] B[8] B[7] B[6] B[5] B[4] B[3] B[2] B[1] B[0] CI 
+ SUM[11] SUM[10] SUM[9] SUM[8] SUM[7] SUM[6] SUM[5] SUM[4] SUM[3] SUM[2] 
+ SUM[1] SUM[0] CO FE_OFN205_backward_metrics_4__2__0 
XU1_1 FA1S $PINS S=SUM[1] CO=carry[2] A=A[1] B=B[1] CI=n1 
XU1_4 FA1S $PINS S=SUM[4] CO=carry[5] A=A[4] B=B[4] CI=carry[4] 
XU1_8 FA1S $PINS S=SUM[8] CO=carry[9] A=A[8] B=B[8] CI=carry[8] 
XU1_9 FA1 $PINS S=SUM[9] CO=carry[10] A=A[9] B=B[9] CI=carry[9] 
XU1_10 FA1S $PINS S=SUM[10] CO=carry[11] A=A[10] B=B[10] CI=carry[10] 
XU1_6 FA1 $PINS S=SUM[6] CO=carry[7] A=A[6] B=B[6] CI=carry[6] 
XU1_7 FA1S $PINS S=SUM[7] CO=carry[8] A=A[7] B=B[7] CI=carry[7] 
XU1_2 FA1S $PINS S=SUM[2] CO=carry[3] A=A[2] B=B[2] CI=carry[2] 
XU1_5 FA1S $PINS S=SUM[5] CO=carry[6] A=A[5] B=B[5] CI=carry[5] 
XU1_3 FA1S $PINS S=SUM[3] CO=carry[4] A=A[3] B=B[3] CI=carry[3] 
XU1_11 XOR3 $PINS O=SUM[11] I1=A[11] I2=B[11] I3=carry[11] 
XU1 AN2 $PINS O=n1 I1=B[0] I2=A[0] 
XU2 XOR2HS $PINS O=SUM[0] I1=B[0] I2=FE_OFN205_backward_metrics_4__2__0 
.ENDS

.SUBCKT Siso_DW01_add_57 A[11] A[10] A[9] A[8] A[7] A[6] A[5] A[4] A[3] A[2] 
+ A[1] A[0] B[11] B[10] B[9] B[8] B[7] B[6] B[5] B[4] B[3] B[2] B[1] B[0] CI 
+ SUM[11] SUM[10] SUM[9] SUM[8] SUM[7] SUM[6] SUM[5] SUM[4] SUM[3] SUM[2] 
+ SUM[1] SUM[0] CO 
XU1_1 FA1S $PINS S=SUM[1] CO=carry[2] A=A[1] B=B[1] CI=n1 
XU1_9 FA1 $PINS S=SUM[9] CO=carry[10] A=A[9] B=B[9] CI=carry[9] 
XU1_10 FA1S $PINS S=SUM[10] CO=carry[11] A=A[10] B=B[10] CI=carry[10] 
XU1_7 FA1 $PINS S=SUM[7] CO=carry[8] A=A[7] B=B[7] CI=carry[7] 
XU1_8 FA1S $PINS S=SUM[8] CO=carry[9] A=A[8] B=B[8] CI=carry[8] 
XU1_4 FA1 $PINS S=SUM[4] CO=carry[5] A=A[4] B=B[4] CI=carry[4] 
XU1_5 FA1S $PINS S=SUM[5] CO=carry[6] A=A[5] B=B[5] CI=carry[5] 
XU1_3 FA1S $PINS S=SUM[3] CO=carry[4] A=A[3] B=B[3] CI=carry[3] 
XU1_6 FA1S $PINS S=SUM[6] CO=carry[7] A=A[6] B=B[6] CI=carry[6] 
XU1_2 FA1 $PINS S=SUM[2] CO=carry[3] A=A[2] B=B[2] CI=carry[2] 
XU1_11 XOR3 $PINS O=SUM[11] I1=A[11] I2=B[11] I3=carry[11] 
XU1 AN2 $PINS O=n1 I1=B[0] I2=A[0] 
XU2 XOR2HS $PINS O=SUM[0] I1=B[0] I2=A[0] 
.ENDS

.SUBCKT Siso_DW01_add_58 A[11] A[10] A[9] A[8] A[7] A[6] A[5] A[4] A[3] A[2] 
+ A[1] A[0] B[11] B[10] B[9] B[8] B[7] B[6] B[5] B[4] B[3] B[2] B[1] B[0] CI 
+ SUM[11] SUM[10] SUM[9] SUM[8] SUM[7] SUM[6] SUM[5] SUM[4] SUM[3] SUM[2] 
+ SUM[1] SUM[0] CO FE_OFN204_backward_metrics_4__2__0 
XU1_1 FA1S $PINS S=SUM[1] CO=carry[2] A=A[1] B=B[1] CI=n1 
XU1_11 XOR3 $PINS O=SUM[11] I1=A[11] I2=B[11] I3=carry[11] 
XU1_4 FA1S $PINS S=SUM[4] CO=carry[5] A=A[4] B=B[4] CI=carry[4] 
XU1_6 FA1S $PINS S=SUM[6] CO=carry[7] A=A[6] B=B[6] CI=carry[6] 
XU1_10 FA1S $PINS S=SUM[10] CO=carry[11] A=A[10] B=B[10] CI=carry[10] 
XU1_8 FA1S $PINS S=SUM[8] CO=carry[9] A=A[8] B=B[8] CI=carry[8] 
XU1_9 FA1 $PINS S=SUM[9] CO=carry[10] A=A[9] B=B[9] CI=carry[9] 
XU1_2 FA1S $PINS S=SUM[2] CO=carry[3] A=A[2] B=B[2] CI=carry[2] 
XU1_7 FA1 $PINS S=SUM[7] CO=carry[8] A=A[7] B=B[7] CI=carry[7] 
XU1_5 FA1S $PINS S=SUM[5] CO=carry[6] A=A[5] B=B[5] CI=carry[5] 
XU1_3 FA1S $PINS S=SUM[3] CO=carry[4] A=A[3] B=B[3] CI=carry[3] 
XU1 AN2 $PINS O=n1 I1=B[0] I2=A[0] 
XU2 XOR2HS $PINS O=SUM[0] I1=B[0] I2=FE_OFN204_backward_metrics_4__2__0 
.ENDS

.SUBCKT Siso_DW01_add_59 A[11] A[10] A[9] A[8] A[7] A[6] A[5] A[4] A[3] A[2] 
+ A[1] A[0] B[11] B[10] B[9] B[8] B[7] B[6] B[5] B[4] B[3] B[2] B[1] B[0] CI 
+ SUM[11] SUM[10] SUM[9] SUM[8] SUM[7] SUM[6] SUM[5] SUM[4] SUM[3] SUM[2] 
+ SUM[1] SUM[0] CO FE_OFN240_backward_metrics_4__0__0 
XU1_1 FA1S $PINS S=SUM[1] CO=carry[2] A=A[1] B=B[1] CI=n1 
XU1_11 XOR3 $PINS O=SUM[11] I1=A[11] I2=B[11] I3=carry[11] 
XU1_8 FA1S $PINS S=SUM[8] CO=carry[9] A=A[8] B=B[8] CI=carry[8] 
XU1_9 FA1 $PINS S=SUM[9] CO=carry[10] A=A[9] B=B[9] CI=carry[9] 
XU1_10 FA1S $PINS S=SUM[10] CO=carry[11] A=A[10] B=B[10] CI=carry[10] 
XU1_7 FA1 $PINS S=SUM[7] CO=carry[8] A=A[7] B=B[7] CI=carry[7] 
XU1_3 FA1S $PINS S=SUM[3] CO=carry[4] A=A[3] B=B[3] CI=carry[3] 
XU1_4 FA1 $PINS S=SUM[4] CO=carry[5] A=A[4] B=B[4] CI=carry[4] 
XU1_5 FA1S $PINS S=SUM[5] CO=carry[6] A=A[5] B=B[5] CI=carry[5] 
XU1_6 FA1S $PINS S=SUM[6] CO=carry[7] A=A[6] B=B[6] CI=carry[6] 
XU1_2 FA1S $PINS S=SUM[2] CO=carry[3] A=A[2] B=B[2] CI=carry[2] 
XU1 AN2 $PINS O=n1 I1=B[0] I2=A[0] 
XU2 XOR2HS $PINS O=SUM[0] I1=B[0] I2=FE_OFN240_backward_metrics_4__0__0 
.ENDS

.SUBCKT Siso_DW01_add_76 A[11] A[10] A[9] A[8] A[7] A[6] A[5] A[4] A[3] A[2] 
+ A[1] A[0] B[11] B[10] B[9] B[8] B[7] B[6] B[5] B[4] B[3] B[2] B[1] B[0] CI 
+ SUM[11] SUM[10] SUM[9] SUM[8] SUM[7] SUM[6] SUM[5] SUM[4] SUM[3] SUM[2] 
+ SUM[1] SUM[0] CO 
XU1_1 FA1S $PINS S=SUM[1] CO=carry[2] A=A[1] B=B[1] CI=n1 
XU1_11 XOR3 $PINS O=SUM[11] I1=A[11] I2=B[11] I3=carry[11] 
XU1_4 FA1S $PINS S=SUM[4] CO=carry[5] A=A[4] B=B[4] CI=carry[4] 
XU1_8 FA1S $PINS S=SUM[8] CO=carry[9] A=A[8] B=B[8] CI=carry[8] 
XU1_9 FA1S $PINS S=SUM[9] CO=carry[10] A=A[9] B=B[9] CI=carry[9] 
XU1_10 FA1S $PINS S=SUM[10] CO=carry[11] A=A[10] B=B[10] CI=carry[10] 
XU1_6 FA1S $PINS S=SUM[6] CO=carry[7] A=A[6] B=B[6] CI=carry[6] 
XU1_7 FA1 $PINS S=SUM[7] CO=carry[8] A=A[7] B=B[7] CI=carry[7] 
XU1_2 FA1S $PINS S=SUM[2] CO=carry[3] A=A[2] B=B[2] CI=carry[2] 
XU1_5 FA1S $PINS S=SUM[5] CO=carry[6] A=A[5] B=B[5] CI=carry[5] 
XU1_3 FA1S $PINS S=SUM[3] CO=carry[4] A=A[3] B=B[3] CI=carry[3] 
XU1 AN2 $PINS O=n1 I1=B[0] I2=A[0] 
XU2 XOR2HS $PINS O=SUM[0] I1=B[0] I2=A[0] 
.ENDS

.SUBCKT Siso_DW01_add_77 A[11] A[10] A[9] A[8] A[7] A[6] A[5] A[4] A[3] A[2] 
+ A[1] A[0] B[11] B[10] B[9] B[8] B[7] B[6] B[5] B[4] B[3] B[2] B[1] B[0] CI 
+ SUM[11] SUM[10] SUM[9] SUM[8] SUM[7] SUM[6] SUM[5] SUM[4] SUM[3] SUM[2] 
+ SUM[1] SUM[0] CO FE_OFN195_backward_metrics_3__1__0 
XU1_1 FA1S $PINS S=SUM[1] CO=carry[2] A=A[1] B=B[1] CI=n1 
XU1_11 XOR3 $PINS O=SUM[11] I1=A[11] I2=B[11] I3=carry[11] 
XU1_9 FA1 $PINS S=SUM[9] CO=carry[10] A=A[9] B=B[9] CI=carry[9] 
XU1_10 FA1S $PINS S=SUM[10] CO=carry[11] A=A[10] B=B[10] CI=carry[10] 
XU1_7 FA1 $PINS S=SUM[7] CO=carry[8] A=A[7] B=B[7] CI=carry[7] 
XU1_8 FA1S $PINS S=SUM[8] CO=carry[9] A=A[8] B=B[8] CI=carry[8] 
XU1_4 FA1 $PINS S=SUM[4] CO=carry[5] A=A[4] B=B[4] CI=carry[4] 
XU1_5 FA1S $PINS S=SUM[5] CO=carry[6] A=A[5] B=B[5] CI=carry[5] 
XU1_3 FA1S $PINS S=SUM[3] CO=carry[4] A=A[3] B=B[3] CI=carry[3] 
XU1_6 FA1S $PINS S=SUM[6] CO=carry[7] A=A[6] B=B[6] CI=carry[6] 
XU1_2 FA1 $PINS S=SUM[2] CO=carry[3] A=A[2] B=B[2] CI=carry[2] 
XU1 AN2 $PINS O=n1 I1=B[0] I2=A[0] 
XU2 XOR2HS $PINS O=SUM[0] I1=B[0] I2=A[0] 
.ENDS

.SUBCKT Siso_DW01_add_78 A[11] A[10] A[9] A[8] A[7] A[6] A[5] A[4] A[3] A[2] 
+ A[1] A[0] B[11] B[10] B[9] B[8] B[7] B[6] B[5] B[4] B[3] B[2] B[1] B[0] CI 
+ SUM[11] SUM[10] SUM[9] SUM[8] SUM[7] SUM[6] SUM[5] SUM[4] SUM[3] SUM[2] 
+ SUM[1] SUM[0] CO FE_OFN198_backward_metrics_3__3__0 
XU1_1 FA1S $PINS S=SUM[1] CO=carry[2] A=A[1] B=B[1] CI=n1 
XU1_11 XOR3 $PINS O=SUM[11] I1=A[11] I2=B[11] I3=carry[11] 
XU1_4 FA1S $PINS S=SUM[4] CO=carry[5] A=A[4] B=B[4] CI=carry[4] 
XU1_8 FA1S $PINS S=SUM[8] CO=carry[9] A=A[8] B=B[8] CI=carry[8] 
XU1_9 FA1S $PINS S=SUM[9] CO=carry[10] A=A[9] B=B[9] CI=carry[9] 
XU1_10 FA1S $PINS S=SUM[10] CO=carry[11] A=A[10] B=B[10] CI=carry[10] 
XU1_6 FA1S $PINS S=SUM[6] CO=carry[7] A=A[6] B=B[6] CI=carry[6] 
XU1_7 FA1S $PINS S=SUM[7] CO=carry[8] A=A[7] B=B[7] CI=carry[7] 
XU1_2 FA1S $PINS S=SUM[2] CO=carry[3] A=A[2] B=B[2] CI=carry[2] 
XU1_5 FA1S $PINS S=SUM[5] CO=carry[6] A=A[5] B=B[5] CI=carry[5] 
XU1_3 FA1S $PINS S=SUM[3] CO=carry[4] A=A[3] B=B[3] CI=carry[3] 
XU1 AN2 $PINS O=n1 I1=B[0] I2=FE_OFN198_backward_metrics_3__3__0 
XU2 XOR2HS $PINS O=SUM[0] I1=B[0] I2=A[0] 
.ENDS

.SUBCKT Siso_DW01_add_79 A[11] A[10] A[9] A[8] A[7] A[6] A[5] A[4] A[3] A[2] 
+ A[1] A[0] B[11] B[10] B[9] B[8] B[7] B[6] B[5] B[4] B[3] B[2] B[1] B[0] CI 
+ SUM[11] SUM[10] SUM[9] SUM[8] SUM[7] SUM[6] SUM[5] SUM[4] SUM[3] SUM[2] 
+ SUM[1] SUM[0] CO FE_OFN194_backward_metrics_3__1__0 
XU1_1 FA1S $PINS S=SUM[1] CO=carry[2] A=A[1] B=B[1] CI=n1 
XU1_11 XOR3 $PINS O=SUM[11] I1=A[11] I2=B[11] I3=carry[11] 
XU1_9 FA1 $PINS S=SUM[9] CO=carry[10] A=A[9] B=B[9] CI=carry[9] 
XU1_10 FA1S $PINS S=SUM[10] CO=carry[11] A=A[10] B=B[10] CI=carry[10] 
XU1_7 FA1S $PINS S=SUM[7] CO=carry[8] A=A[7] B=B[7] CI=carry[7] 
XU1_8 FA1S $PINS S=SUM[8] CO=carry[9] A=A[8] B=B[8] CI=carry[8] 
XU1_4 FA1 $PINS S=SUM[4] CO=carry[5] A=A[4] B=B[4] CI=carry[4] 
XU1_5 FA1S $PINS S=SUM[5] CO=carry[6] A=A[5] B=B[5] CI=carry[5] 
XU1_3 FA1S $PINS S=SUM[3] CO=carry[4] A=A[3] B=B[3] CI=carry[3] 
XU1_6 FA1S $PINS S=SUM[6] CO=carry[7] A=A[6] B=B[6] CI=carry[6] 
XU1_2 FA1 $PINS S=SUM[2] CO=carry[3] A=A[2] B=B[2] CI=carry[2] 
XU1 AN2 $PINS O=n1 I1=B[0] I2=FE_OFN194_backward_metrics_3__1__0 
XU2 XOR2HS $PINS O=SUM[0] I1=B[0] I2=FE_OFN194_backward_metrics_3__1__0 
.ENDS

.SUBCKT Siso_DW01_add_80 A[11] A[10] A[9] A[8] A[7] A[6] A[5] A[4] A[3] A[2] 
+ A[1] A[0] B[11] B[10] B[9] B[8] B[7] B[6] B[5] B[4] B[3] B[2] B[1] B[0] CI 
+ SUM[11] SUM[10] SUM[9] SUM[8] SUM[7] SUM[6] SUM[5] SUM[4] SUM[3] SUM[2] 
+ SUM[1] SUM[0] CO FE_OFN196_backward_metrics_3__2__0 
XU1_1 FA1S $PINS S=SUM[1] CO=carry[2] A=A[1] B=B[1] CI=n1 
XU1_11 XOR3 $PINS O=SUM[11] I1=A[11] I2=B[11] I3=carry[11] 
XU1_4 FA1S $PINS S=SUM[4] CO=carry[5] A=A[4] B=B[4] CI=carry[4] 
XU1_8 FA1S $PINS S=SUM[8] CO=carry[9] A=A[8] B=B[8] CI=carry[8] 
XU1_9 FA1S $PINS S=SUM[9] CO=carry[10] A=A[9] B=B[9] CI=carry[9] 
XU1_10 FA1S $PINS S=SUM[10] CO=carry[11] A=A[10] B=B[10] CI=carry[10] 
XU1_6 FA1S $PINS S=SUM[6] CO=carry[7] A=A[6] B=B[6] CI=carry[6] 
XU1_7 FA1 $PINS S=SUM[7] CO=carry[8] A=A[7] B=B[7] CI=carry[7] 
XU1_2 FA1S $PINS S=SUM[2] CO=carry[3] A=A[2] B=B[2] CI=carry[2] 
XU1_5 FA1S $PINS S=SUM[5] CO=carry[6] A=A[5] B=B[5] CI=carry[5] 
XU1_3 FA1S $PINS S=SUM[3] CO=carry[4] A=A[3] B=B[3] CI=carry[3] 
XU1 AN2 $PINS O=n1 I1=B[0] I2=FE_OFN196_backward_metrics_3__2__0 
XU2 XOR2HS $PINS O=SUM[0] I1=B[0] I2=FE_OFN196_backward_metrics_3__2__0 
.ENDS

.SUBCKT Siso_DW01_add_81 A[11] A[10] A[9] A[8] A[7] A[6] A[5] A[4] A[3] A[2] 
+ A[1] A[0] B[11] B[10] B[9] B[8] B[7] B[6] B[5] B[4] B[3] B[2] B[1] B[0] CI 